data_image0
_chemical_formula_structural       Ti2O4Ti4O8V2O5Ti2O4Ti4O8V2O5
_chemical_formula_sum              "Ti12 O34 V4"
_cell_length_a       7.565
_cell_length_b       7.565
_cell_length_c       30
_cell_angle_alpha    90
_cell_angle_beta     90
_cell_angle_gamma    90

_space_group_name_H-M_alt    "P 1"
_space_group_IT_number       1

loop_
  _space_group_symop_operation_xyz
  'x, y, z'

loop_
  _atom_site_type_symbol
  _atom_site_label
  _atom_site_symmetry_multiplicity
  _atom_site_fract_x
  _atom_site_fract_y
  _atom_site_fract_z
  _atom_site_occupancy
  Ti  Ti1       1.0  0.49998  0.25035  0.32991  1.0000
  Ti  Ti2       1.0  0.49998  0.75036  0.32991  1.0000
  O   O1        1.0  0.25000  0.25035  0.34364  1.0000
  O   O2        1.0  0.49998  0.00035  0.31617  1.0000
  O   O3        1.0  0.49998  0.50036  0.31617  1.0000
  O   O4        1.0  0.24867  0.75035  0.34292  1.0000
  Ti  Ti3       1.0  0.25009  0.24812  0.40918  1.0000
  Ti  Ti4       1.0  0.25109  0.99965  0.49174  1.0000
  Ti  Ti5       1.0  0.25133  0.50259  0.48868  1.0000
  Ti  Ti6       1.0  0.24935  0.75248  0.40884  1.0000
  O   O5        1.0  0.25177  0.24880  0.47536  1.0000
  O   O6        1.0  0.24909  0.99961  0.42404  1.0000
  O   O7        1.0  0.24923  0.50070  0.42308  1.0000
  O   O8        1.0  0.00082  0.98831  0.50798  1.0000
  O   O9        1.0  0.49993  0.24953  0.39495  1.0000
  O   O10       1.0  0.25121  0.75188  0.47612  1.0000
  O   O11       1.0  0.49917  0.75105  0.39470  1.0000
  O   O12       1.0  0.00120  0.51417  0.50393  1.0000
  V   V1        1.0  0.00035  0.04931  0.57356  1.0000
  V   V2        1.0  0.00323  0.46546  0.56806  1.0000
  O   O13       1.0  0.00062  0.26226  0.59763  1.0000
  O   O14       1.0  0.00132  0.61403  0.60494  1.0000
  O   O15       1.0  0.25072  0.04341  0.55727  1.0000
  O   O16       1.0  0.25135  0.45718  0.55359  1.0000
  O   O17       1.0  0.00114  0.92640  0.61604  1.0000
  Ti  Ti7       1.0  0.99998  0.25035  0.32991  1.0000
  Ti  Ti8       1.0  0.99998  0.75036  0.32991  1.0000
  O   O18       1.0  0.75000  0.25035  0.34364  1.0000
  O   O19       1.0  0.99998  0.00035  0.31617  1.0000
  O   O20       1.0  0.99998  0.50036  0.31617  1.0000
  O   O21       1.0  0.74867  0.75035  0.34292  1.0000
  Ti  Ti9       1.0  0.75009  0.24812  0.40918  1.0000
  Ti  Ti10      1.0  0.75109  0.99965  0.49174  1.0000
  Ti  Ti11      1.0  0.75133  0.50259  0.48868  1.0000
  Ti  Ti12      1.0  0.74935  0.75248  0.40884  1.0000
  O   O22       1.0  0.75177  0.24880  0.47536  1.0000
  O   O23       1.0  0.74909  0.99961  0.42404  1.0000
  O   O24       1.0  0.74923  0.50070  0.42308  1.0000
  O   O25       1.0  0.50082  0.98831  0.50798  1.0000
  O   O26       1.0  0.99993  0.24953  0.39495  1.0000
  O   O27       1.0  0.75121  0.75188  0.47612  1.0000
  O   O28       1.0  0.99917  0.75105  0.39470  1.0000
  O   O29       1.0  0.50120  0.51417  0.50393  1.0000
  V   V3        1.0  0.50035  0.04931  0.57356  1.0000
  V   V4        1.0  0.50323  0.46546  0.56806  1.0000
  O   O30       1.0  0.50062  0.26226  0.59763  1.0000
  O   O31       1.0  0.50132  0.61403  0.60494  1.0000
  O   O32       1.0  0.75072  0.04341  0.55727  1.0000
  O   O33       1.0  0.75135  0.45718  0.55359  1.0000
  O   O34       1.0  0.50114  0.92640  0.61604  1.0000
